Version 4
SHEET 1 2796 680
WIRE 32 -32 0 -32
WIRE 128 -32 96 -32
WIRE -128 48 -208 48
WIRE -96 48 -128 48
WIRE 0 48 0 -32
WIRE 0 48 -16 48
WIRE 32 48 0 48
WIRE 128 48 128 -32
WIRE 128 48 96 48
WIRE 176 48 128 48
WIRE 224 48 176 48
WIRE 320 48 288 48
WIRE 544 48 320 48
WIRE 592 48 544 48
WIRE 672 48 592 48
WIRE 960 48 928 48
WIRE 1056 48 960 48
WIRE -208 96 -208 48
WIRE 176 96 176 48
WIRE 320 96 320 48
WIRE 960 96 960 48
WIRE 1056 96 1056 48
WIRE 544 128 544 48
WIRE -208 224 -208 176
WIRE 176 224 176 160
WIRE 176 224 -208 224
WIRE 288 224 176 224
WIRE 320 224 320 160
WIRE 320 224 288 224
WIRE 544 224 544 208
WIRE 544 224 320 224
WIRE 800 224 800 144
WIRE 800 224 544 224
WIRE 960 224 960 160
WIRE 960 224 800 224
WIRE 1056 224 1056 176
WIRE 1056 224 960 224
WIRE 288 256 288 224
WIRE 592 304 592 48
WIRE -128 384 -128 48
WIRE 272 384 -128 384
WIRE 368 384 352 384
WIRE 480 384 448 384
WIRE 592 384 592 368
WIRE 592 384 480 384
WIRE 704 384 592 384
WIRE 592 400 592 384
WIRE 704 400 704 384
WIRE 480 416 480 384
WIRE -128 480 -128 384
WIRE -48 480 -128 480
WIRE 112 480 32 480
WIRE 224 480 112 480
WIRE 480 496 480 480
WIRE 592 496 592 464
WIRE 592 496 480 496
WIRE 640 496 592 496
WIRE 704 496 704 480
WIRE 704 496 640 496
WIRE 640 512 640 496
WIRE 112 560 112 544
WIRE 160 560 112 560
WIRE 112 576 112 560
WIRE 160 576 160 560
WIRE 224 576 224 560
WIRE 224 576 160 576
FLAG 288 256 0
FLAG 640 512 0
FLAG 112 576 0
SYMBOL voltage -208 80 R0
WINDOW 123 0 0 Left 2
WINDOW 39 0 0 Left 2
WINDOW 0 39 41 Left 2
WINDOW 3 24 96 Invisible 2
SYMATTR InstName Vin
SYMATTR Value SINE(0 310 50 0)
SYMBOL res 0 32 R90
WINDOW 0 0 56 VBottom 2
WINDOW 3 32 56 VTop 2
SYMATTR InstName R1
SYMATTR Value 120
SYMBOL cap 944 96 R0
SYMATTR InstName C2
SYMATTR Value 22µ
SYMBOL zener 192 160 R180
WINDOW 0 32 29 Left 2
WINDOW 3 26 -2 Left 2
SYMATTR InstName ZenerDiode
SYMATTR Value BZX84C6V2L
SYMATTR Description Diode
SYMATTR Type diode
SYMBOL diode 224 32 M90
WINDOW 0 0 32 VBottom 2
WINDOW 3 60 31 VBottom 2
SYMATTR InstName BlockingDiode
SYMATTR Value ES1D
SYMBOL cap 304 96 R0
WINDOW 3 28 60 Left 2
SYMATTR Value 470µ
SYMATTR InstName OutputCapacitance
SYMBOL PowerProducts\\LT1086-3.3 800 48 R0
SYMATTR InstName U1
SYMBOL res 528 112 R0
WINDOW 0 36 51 Left 2
SYMATTR InstName R_Load_unregulated
SYMATTR Value 1000
SYMBOL res 1040 80 R0
WINDOW 0 36 51 Left 2
SYMATTR InstName R_Load_regulated
SYMATTR Value 1000
SYMBOL cap 32 64 R270
WINDOW 0 32 32 VTop 2
WINDOW 3 0 32 VBottom 2
SYMATTR InstName C1
SYMATTR Value 470n
SYMBOL res 256 400 R270
WINDOW 0 32 56 VTop 2
WINDOW 3 0 56 VBottom 2
SYMATTR InstName R2
SYMATTR Value 560K
SYMBOL res 352 400 R270
WINDOW 0 32 56 VTop 2
WINDOW 3 0 56 VBottom 2
SYMATTR InstName R3
SYMATTR Value 560K
SYMBOL diode 608 464 R180
WINDOW 0 24 64 Left 2
WINDOW 3 24 0 Left 2
SYMATTR InstName D1
SYMATTR Value 1N4148
SYMBOL diode 608 368 R180
WINDOW 0 24 64 Left 2
WINDOW 3 24 0 Left 2
SYMATTR InstName D2
SYMATTR Value 1N4148
SYMBOL res 688 384 R0
SYMATTR InstName R4
SYMATTR Value 1000k
SYMBOL zener 128 544 R180
WINDOW 0 32 29 Left 2
WINDOW 3 26 -2 Left 2
SYMATTR InstName ZenerDiode1
SYMATTR Value BZX84C6V2L
SYMATTR Description Diode
SYMATTR Type diode
SYMBOL res -64 496 R270
WINDOW 0 32 56 VTop 2
WINDOW 3 0 56 VBottom 2
SYMATTR InstName R5
SYMATTR Value 200K
SYMBOL res 208 464 R0
SYMATTR InstName R6
SYMATTR Value 1000k
SYMBOL cap 32 -16 R270
WINDOW 0 32 32 VTop 2
WINDOW 3 0 32 VBottom 2
SYMATTR InstName C3
SYMATTR Value 470n
TEXT -208 304 Left 2 !.tran 2
TEXT -160 -128 Left 4 ;Capacitive Half-Wave Rectification (with Blocking Diode Post-Zener)
TEXT 632 -56 Left 2 ;Optional LDO for output regulation
TEXT -168 152 Left 2 ;220Vrms, 50Hz
TEXT -208 272 Left 2 ;Simulate: transient analysis, 2 seconds
TEXT 24 -200 Left 5 ;Transformerless Power Supply
